30

H                 -1.37692800   -0.31764600   -1.99147200
H                 -1.17647800    2.30544400    0.61664500
H                 -1.54329900    1.79934000   -0.80467000
H                  1.68504900    3.78266100   -0.80702700
H                  0.46613700    2.80809400   -0.76034000
H                 -0.81234300   -2.22287900   -1.22233100
H                  0.57663000   -1.69079200   -1.68900000
H                  2.48291200   -0.65957600   -0.80532500
H                  3.01536200   -1.85017400   -1.69772400
H                  2.24123500    0.51952400    0.93555700
H                  2.23821500    1.52615500   -0.26628500
H                 -2.54718700    0.49937600   -2.62727100
O                 -0.37132700   -1.70990200   -1.90993700
O                  2.62837900    0.68863000    0.07039300
O                  2.29868700   -1.59124900   -1.11481100
O                  1.43339700    2.86905200   -0.94955000
O                 -2.13890200    0.27371700   -1.78818900
O                 -1.13986000    2.54006000   -0.32879900
O                 -0.99801500    1.68493400    2.29349600
O                  1.76287300   -1.78096300    1.58822700
O                 -2.53884600   -1.82310100   -0.02485700
H                  2.04561700   -1.98958500    0.68154000
H                  2.29649400   -2.31472400    2.17998500
O                 -0.88773200   -1.01006300    2.15108900
H                 -0.96692300    0.70417000    2.31436800
H                 -2.70586000   -1.03751100   -0.57592900
H                  0.00435500   -1.34483200    1.96913500
H                 -1.46141000   -1.35804300    1.45238300
H                 -3.38526200   -2.25128500    0.11925500
H                 -1.46555600    1.96336000    3.08200200
