30

H                  1.86251900   -2.09687400    0.11132800
H                 -0.12708500   -2.52772300   -0.97773200
H                 -1.19271200   -3.54733000   -1.46720000
H                 -2.18140800   -1.12414200   -1.26173000
H                 -2.71798500   -0.66135400    0.06786100
H                  2.10515100    1.11923900   -1.20589600
H                  3.43533200    0.62214100   -1.86643200
H                  0.86217900    2.67455100   -0.16617700
H                  0.07521100    2.15353000   -1.35071800
H                 -2.14525700    1.06444400   -1.06956200
H                 -2.41807200    2.49327900   -1.67523100
H                  1.89840000   -1.35871600   -1.21019500
O                 -2.69756500   -0.39919400   -0.87582300
O                 -1.79608900    2.00549600   -1.13096200
O                  0.98683200    2.32863900   -1.06046600
O                  2.76844400    0.38290500   -1.21938100
O                 -1.09137000   -2.70911700   -1.01198000
O                  1.55128200   -2.16552400   -0.80049600
O                  2.74731200   -0.66197300    1.31040900
O                 -2.11684300   -1.60201800    1.50390400
O                 -0.60989500    2.66555500    1.23636900
H                 -1.74718300   -2.28055500    0.92450800
H                  3.00847400   -0.18054500    0.50438600
H                 -1.25194400    2.53024700    0.51220500
O                  0.07374900    0.01538300    2.13763100
H                  3.48231900   -0.62153800    1.92544400
H                 -0.08832900    0.92929700    1.86375800
H                 -1.34571900   -1.10801700    1.83593200
H                  0.98911200   -0.18808500    1.90045400
H                 -1.02986800    3.22693700    1.89134700
