48

O          0.69133       -2.69571        1.45340
H          0.32473       -3.20486        0.71501
H          1.60566       -2.98727        1.55310
O         -4.14721        0.16591        1.45436
H         -3.21680       -0.09551        1.46710
H         -4.51024       -0.17778        0.62850
O         -0.50867       -4.30662       -0.49938
H         -1.25265       -3.75554       -0.77322
H         -0.86683       -4.96262        0.11661
O         -6.10302       -2.95712        1.25219
H         -5.46367       -3.68142        1.28036
H         -5.98191       -2.46152        2.07175
O         -3.77064       -4.56413        1.22134
H         -3.12271       -5.27675        1.28892
H         -3.44531       -3.96335        0.53484
O         -5.31330       -1.27518        3.45392
H         -5.80068       -0.74015        4.07424
H         -4.93652       -0.66852        2.79127
O         -1.42831       -6.06927        1.50109
H         -0.76555       -6.76803        1.44249
H         -1.15652       -5.50059        2.23701
O          3.11534       -4.09551        1.73746
H          2.73240       -4.71253        2.38687
H          4.01613       -3.93534        2.00489
O          1.78234       -5.81730        3.37858
H          1.50206       -6.55540        2.82305
H          0.97472       -5.34937        3.62954
O         -3.05046       -2.94600        3.39190
H         -3.81355       -2.40012        3.61696
H         -3.34942       -3.55609        2.70107
O         -5.23666       -1.32783       -0.75518
H         -5.64417       -1.91518       -0.09333
H         -5.90654       -1.13617       -1.40566
O         -2.75337       -2.63730       -0.56947
H         -2.35959       -2.08674        0.12383
H         -3.56736       -2.19286       -0.83563
O         -1.69004       -1.23464        1.61004
H         -2.11547       -1.77256        2.29393
H         -0.76496       -1.50979        1.58345
O          0.89382       -7.64976        1.34073
H          1.30750       -7.05204        0.69211
H          1.15029       -8.53662        1.10346
O         -0.57144       -4.24289        3.44492
H         -1.40048       -3.80621        3.67777
H         -0.11318       -3.64975        2.83154
O          1.92711       -5.73977       -0.30821
H          2.44929       -5.15358        0.25363
H          1.16496       -5.22197       -0.60007
