9

H                 -1.65258300   -2.02835700   -1.34582400
H                 -0.32319000   -0.85667900    0.45746200
H                 -0.61881500    0.35798100   -1.46110700
O                 -0.71905000    1.29068400   -1.25179100
O                 -0.73776000   -1.76861900   -1.20554300
O                 -0.17371800   -0.24238100    1.18667800
H                 -0.20207200   -2.37558100   -1.72245400
H                  0.60183800   -0.56445400    1.64853100
H                 -0.53298200    1.32724900   -0.30722700
