9

H                 -0.07904100   -1.76288400   -1.90963200
H                 -0.31267300   -0.73945300    0.50285800
H                 -0.84265200    2.20240400   -1.35355600
O                 -1.19386500    1.34616100   -1.10547100
O                 -0.63476000   -1.35282600   -1.24531700
O                 -0.32918200   -0.00449400    1.13890200
H                 -0.86429900   -0.46866500   -1.57581500
H                 -0.80140900   -0.32341300    1.90984300
H                 -0.93522100    1.19188400   -0.18109300
