12
0 1
 H                 -2.92394000   -1.73780500    0.35896800
 H                 -1.40576600   -1.35237500    0.42370600
 H                  0.84316500   -1.28022600    0.73494800
 H                  0.61241400   -2.71156600    1.33128700
 H                  2.71431000   -0.26768600    0.91335800
 H                 -1.55079300    0.77534100   -0.45193000
 H                 -0.02768200    0.98304900   -0.14437100
 H                  2.63229500    1.02663000    0.03266500
 O                 -2.28327700   -1.04412000    0.18589800
 O                 -0.81202800    1.38388200   -0.52612300
 O                  2.12142200    0.33175600    0.45428000
 O                  0.22200600   -2.00864800    0.80679900
