18

H                 -2.86052600   -0.70128300    1.32848000
H                 -1.42349700   -0.99996200   -1.03248100
H                 -1.52169300    1.36740600    0.00888200
H                  0.82037400    0.04035600    1.65282800
H                  2.03304400    2.19831000    0.54320700
H                  2.58758800   -1.42353300   -1.13388200
O                  0.37472200   -0.81307800    1.76409900
O                  1.81047800   -1.11346500   -0.66446100
O                  1.52287300    1.39657200    0.41325000
O                 -0.87772500    1.73313300   -0.61511800
O                 -2.12068100   -0.40879300    0.79299900
O                 -0.83118900   -0.78384000   -1.76575100
H                  0.64266400    1.65821500    0.03071300
H                  1.96052200   -0.17670900   -0.43857000
H                  0.84912400   -1.38362800    1.14519800
H                 -1.30082600   -0.62005500    1.28802600
H                  0.04498800   -1.08705700   -1.48766600
H                 -0.85958300    1.04370600   -1.30489200
